Version 4
SHEET 1 1128 680
WIRE 208 -32 208 -192
WIRE 208 -32 -32 -32
WIRE 368 -32 208 -32
WIRE 496 -32 368 -32
WIRE 1072 -16 1072 -64
WIRE 496 16 496 -32
WIRE 112 80 -208 80
WIRE 368 80 368 -32
WIRE 368 80 336 80
WIRE 496 112 496 96
WIRE 496 112 368 112
WIRE 1072 112 1072 64
WIRE 112 144 80 144
WIRE 368 144 368 112
WIRE 368 144 336 144
WIRE -16 208 -80 208
WIRE 112 208 64 208
WIRE 496 208 496 192
WIRE 496 208 336 208
WIRE -80 256 -80 208
WIRE -32 272 -32 -32
WIRE 112 272 -32 272
WIRE 80 336 80 144
WIRE 496 336 496 208
WIRE 496 336 80 336
WIRE 496 384 496 336
WIRE -208 496 -208 80
WIRE -80 496 -80 320
WIRE -80 496 -208 496
WIRE 160 496 -80 496
WIRE 496 496 496 448
WIRE 496 496 160 496
WIRE 160 528 160 496
FLAG 208 -192 Vcc
FLAG 1072 112 0
FLAG 1072 -64 Vcc
FLAG 160 528 0
FLAG -80 208 Vd
SYMBOL Misc\\NE555 224 176 R0
SYMATTR InstName U1
SYMBOL LED -96 256 R0
SYMATTR InstName D1
SYMBOL voltage 1072 -32 R0
WINDOW 123 0 0 Left 0
WINDOW 39 0 0 Left 0
SYMATTR InstName V1
SYMATTR Value 3V
SYMBOL res 80 192 R90
WINDOW 0 0 56 VBottom 2
WINDOW 3 32 56 VTop 2
SYMATTR InstName R1
SYMATTR Value 150
SYMBOL res 480 0 R0
SYMATTR InstName R2
SYMATTR Value 1k
SYMBOL cap 480 384 R0
SYMATTR InstName C1
SYMATTR Value 10µF
SYMBOL res 480 96 R0
SYMATTR InstName Rpot
SYMATTR Value 10k
TEXT -210 552 Left 2 !.op
