Version 4
SHEET 1 1160 1096
WIRE 144 -160 -128 -160
WIRE 272 -160 144 -160
WIRE 432 -160 272 -160
WIRE 528 -160 432 -160
WIRE 272 -144 272 -160
WIRE 432 -144 432 -160
WIRE 784 -80 704 -80
WIRE 432 -64 432 -80
WIRE 144 -48 144 -160
WIRE 272 -48 272 -80
WIRE 784 -48 784 -80
WIRE -128 32 -128 -160
WIRE -96 32 -128 32
WIRE 48 32 -16 32
WIRE 432 32 432 16
WIRE 432 32 368 32
WIRE 784 48 784 32
WIRE 48 128 -80 128
WIRE 576 128 368 128
WIRE 784 144 784 128
WIRE 448 224 368 224
WIRE 528 224 528 -160
WIRE 528 224 512 224
WIRE 784 240 784 224
WIRE 528 272 528 224
WIRE 576 272 576 128
WIRE 576 272 528 272
WIRE 48 320 -144 320
WIRE 400 320 368 320
WIRE 528 336 528 272
WIRE 544 336 528 336
WIRE 704 336 608 336
WIRE 784 336 784 320
WIRE 880 336 784 336
WIRE 144 432 144 400
WIRE 784 432 784 416
WIRE 272 512 272 400
WIRE 336 512 272 512
WIRE 528 512 528 336
WIRE 528 512 400 512
WIRE 656 512 528 512
WIRE 528 528 528 512
WIRE 144 544 144 496
WIRE 272 544 272 512
WIRE 272 624 272 608
WIRE 320 624 272 624
WIRE 528 624 528 608
WIRE 528 624 384 624
WIRE 768 624 528 624
WIRE 864 624 768 624
WIRE 976 624 864 624
WIRE 1088 624 976 624
WIRE -80 656 -80 128
WIRE 144 656 144 624
WIRE 144 656 -80 656
WIRE 768 688 768 624
WIRE 864 688 864 624
WIRE 976 688 976 624
WIRE 0 704 -16 704
WIRE 32 704 0 704
WIRE 144 704 144 656
WIRE 144 704 96 704
WIRE 272 768 272 624
WIRE 704 800 704 336
WIRE 768 800 768 752
WIRE 768 800 704 800
WIRE 864 800 864 752
WIRE 864 800 768 800
WIRE 976 800 976 752
WIRE 976 800 864 800
WIRE 1088 800 976 800
WIRE 0 816 0 704
WIRE 32 816 0 816
WIRE 144 816 144 704
WIRE 144 816 96 816
WIRE 144 864 144 816
WIRE -144 992 -144 320
WIRE 272 992 272 848
WIRE 272 992 -144 992
WIRE 320 992 272 992
WIRE 656 992 656 512
WIRE 656 992 400 992
FLAG -16 704 0
FLAG 144 864 400V
FLAG 1088 624 Vout
FLAG 1088 800 0
FLAG 400 320 EN
FLAG 704 -80 400V
FLAG 784 512 0
FLAG 880 336 EN
FLAG 704 0 0
SYMBOL PowerProducts\\LT8315 208 176 R180
SYMATTR InstName U1
SYMBOL cap 128 432 R0
SYMATTR InstName C4
SYMATTR Value 10pF
SYMATTR SpiceLine V=630V
SYMBOL res 128 528 R0
SYMATTR InstName R3
SYMATTR Value 4.99k
SYMBOL cap 96 688 R90
WINDOW 0 0 32 VBottom 2
WINDOW 3 32 32 VTop 2
SYMATTR InstName C14
SYMATTR Value 0.47µF
SYMBOL cap 96 800 R90
WINDOW 0 0 32 VBottom 2
WINDOW 3 32 32 VTop 2
SYMATTR InstName C2
SYMATTR Value 3.3µF
SYMBOL res 0 16 R90
WINDOW 0 0 56 VBottom 2
WINDOW 3 32 56 VTop 2
SYMATTR InstName R12
SYMATTR Value 0.33
SYMBOL cap 256 -144 R0
SYMATTR InstName C16
SYMATTR Value 0.1µF
SYMBOL cap 448 -80 R180
WINDOW 0 24 56 Left 2
WINDOW 3 -67 14 Left 2
SYMATTR InstName C5
SYMATTR Value 0.33µF
SYMBOL res 416 -80 R0
SYMATTR InstName R6
SYMATTR Value 22.1k
SYMBOL cap 512 208 R90
WINDOW 0 0 32 VBottom 2
WINDOW 3 32 32 VTop 2
SYMATTR InstName C3
SYMATTR Value 10µF
SYMBOL cap 400 496 R90
WINDOW 0 0 32 VBottom 2
WINDOW 3 32 32 VTop 2
SYMATTR InstName C8
SYMATTR Value 10µF
SYMBOL res 256 752 R0
SYMATTR InstName R9
SYMATTR Value 10.7k
SYMBOL diode 384 608 R90
WINDOW 0 0 32 VBottom 2
WINDOW 3 32 32 VTop 2
SYMATTR InstName D2
SYMATTR Value RR1VWM6S
SYMBOL ind 512 512 R0
SYMATTR InstName L1
SYMATTR Value 1500µH
SYMBOL res 416 976 R90
WINDOW 0 0 56 VBottom 2
WINDOW 3 32 56 VTop 2
SYMATTR InstName R10
SYMATTR Value 1.24k
SYMBOL diode 608 320 R90
WINDOW 0 0 32 VBottom 2
WINDOW 3 28 32 VBottom 2
SYMATTR InstName D3
SYMATTR Value RR1VWM6S
SYMBOL cap 752 688 R0
SYMATTR InstName C11
SYMATTR Value 22µF
SYMBOL cap 848 688 R0
SYMATTR InstName C12
SYMATTR Value 22µF
SYMBOL res 768 -64 R0
SYMATTR InstName R1
SYMATTR Value 249k
SYMBOL res 768 32 R0
SYMATTR InstName R2
SYMATTR Value 249k
SYMBOL res 768 128 R0
SYMATTR InstName R4
SYMATTR Value 249k
SYMBOL res 768 224 R0
SYMATTR InstName R5
SYMATTR Value 249k
SYMBOL res 768 320 R0
SYMATTR InstName R7
SYMATTR Value 20k
SYMBOL res 768 416 R0
SYMATTR InstName R8
SYMATTR Value 1k
SYMBOL zener 992 752 R180
WINDOW 0 24 64 Left 2
WINDOW 3 24 0 Left 2
SYMATTR InstName D1
SYMATTR Value UDZLV100
SYMBOL schottky 288 608 R180
WINDOW 0 24 64 Left 2
WINDOW 3 24 0 Left 2
SYMATTR InstName D4
SYMATTR Value RB238T150NZ
SYMBOL voltage 704 -96 R0
WINDOW 3 24 44 Left 2
WINDOW 123 0 0 Left 0
WINDOW 39 0 0 Left 0
SYMATTR InstName V1
SYMATTR Value 200
TEXT 704 848 Left 2 ;Voltage Indicator
TEXT -144 1048 Left 2 !.tran 0 10m 0 10u
