Version 4
SHEET 1 3204 2056
WIRE 2288 -160 1056 -160
WIRE 2368 -112 2096 -112
WIRE 2096 -96 2096 -112
WIRE 1920 -48 1856 -48
WIRE 2032 -48 2000 -48
WIRE 2368 -32 2368 -48
WIRE 2096 16 2096 0
WIRE 2288 96 2288 -160
WIRE 2288 96 2096 96
WIRE 480 144 480 96
WIRE 1472 144 1472 96
WIRE 320 160 288 160
WIRE 448 160 400 160
WIRE 1312 160 1248 160
WIRE 1440 160 1392 160
WIRE 848 176 512 176
WIRE 1712 176 1504 176
WIRE -1104 192 -1136 192
WIRE -976 192 -1024 192
WIRE -848 192 -896 192
WIRE -720 192 -768 192
WIRE -608 192 -640 192
WIRE -480 192 -528 192
WIRE -320 192 -400 192
WIRE 448 192 432 192
WIRE 848 192 848 176
WIRE 1440 192 1424 192
WIRE 2176 192 2064 192
WIRE 2560 192 2176 192
WIRE 2864 192 2560 192
WIRE 1472 240 1472 208
WIRE 1712 256 1712 240
WIRE -320 272 -320 192
WIRE 80 272 -320 272
WIRE 320 272 80 272
WIRE 432 272 432 192
WIRE 432 272 400 272
WIRE 1424 272 1424 192
WIRE 1424 272 1392 272
WIRE 848 288 848 256
WIRE 480 304 480 208
WIRE 2688 304 2112 304
WIRE 2864 320 2864 192
WIRE 1312 336 1312 272
WIRE 1408 336 1312 336
WIRE 1312 352 1312 336
WIRE 1712 352 1712 336
WIRE -320 368 -320 272
WIRE -320 368 -432 368
WIRE -432 400 -432 368
WIRE 848 400 848 368
WIRE 2272 416 2032 416
WIRE 2560 416 2560 192
WIRE 2560 416 2496 416
WIRE 1056 432 1056 -160
WIRE 1136 432 1056 432
WIRE 1264 432 1136 432
WIRE 1136 448 1136 432
WIRE 2864 464 2864 400
WIRE 2864 464 2512 464
WIRE 2976 464 2864 464
WIRE 1312 480 1312 448
WIRE 2112 480 2112 304
WIRE 2272 480 2112 480
WIRE 2512 480 2512 464
WIRE 2512 480 2496 480
WIRE 2976 480 2976 464
WIRE 496 528 496 480
WIRE -432 544 -432 480
WIRE 336 544 320 544
WIRE 464 544 416 544
WIRE 1856 544 1856 -48
WIRE 2272 544 1856 544
WIRE 2688 544 2688 304
WIRE 2688 544 2496 544
WIRE 2864 544 2688 544
WIRE 2976 544 2864 544
WIRE 864 560 528 560
WIRE 1056 560 1056 432
WIRE 1056 560 864 560
WIRE 464 576 448 576
WIRE 2176 608 2176 192
WIRE 2272 608 2176 608
WIRE 2592 608 2496 608
WIRE 2864 608 2864 544
WIRE -432 640 -432 624
WIRE 80 656 80 272
WIRE 336 656 80 656
WIRE 448 656 448 576
WIRE 448 656 416 656
WIRE 2592 752 2592 608
WIRE 2032 864 2032 416
WIRE 2432 864 2032 864
WIRE 2592 864 2592 816
WIRE 2592 864 2432 864
WIRE 2864 864 2864 672
WIRE 2864 864 2592 864
WIRE 2432 880 2432 864
WIRE -1072 912 -1072 880
WIRE -928 912 -928 880
WIRE -784 912 -784 880
WIRE -640 912 -640 880
WIRE -1072 1024 -1072 992
WIRE -928 1024 -928 992
WIRE -784 1024 -784 992
WIRE -640 1024 -640 992
WIRE -192 1024 -240 1024
WIRE -144 1024 -192 1024
WIRE -64 1024 -80 1024
WIRE -192 1120 -192 1024
WIRE 160 1120 -192 1120
WIRE -480 1152 -512 1152
WIRE -384 1152 -416 1152
WIRE -32 1152 -384 1152
WIRE 320 1152 -32 1152
WIRE 320 1168 320 1152
WIRE -512 1184 -512 1152
WIRE -384 1184 -384 1152
WIRE 448 1200 432 1200
WIRE 560 1200 512 1200
WIRE 672 1200 560 1200
WIRE 816 1200 672 1200
WIRE 432 1264 432 1200
WIRE 432 1264 400 1264
WIRE 560 1264 560 1200
WIRE 672 1264 672 1200
WIRE 816 1264 816 1200
WIRE 864 1264 816 1264
WIRE -704 1280 -720 1280
WIRE -512 1280 -512 1264
WIRE -512 1280 -640 1280
WIRE -384 1280 -384 1264
WIRE 320 1280 320 1248
WIRE 320 1296 320 1280
WIRE -32 1312 -32 1152
WIRE 864 1312 816 1312
WIRE -512 1328 -512 1280
WIRE -512 1328 -688 1328
WIRE 160 1328 160 1120
WIRE 320 1328 160 1328
WIRE -688 1344 -688 1328
WIRE 432 1344 400 1344
WIRE -512 1360 -512 1328
WIRE -384 1360 -384 1344
WIRE 432 1376 432 1344
WIRE 560 1376 560 1328
WIRE 560 1376 432 1376
WIRE 672 1376 672 1328
WIRE 672 1376 560 1376
WIRE 816 1376 816 1312
WIRE 816 1376 672 1376
WIRE 160 1408 160 1328
WIRE 320 1408 288 1408
WIRE -688 1440 -688 1424
WIRE -688 1440 -720 1440
WIRE -608 1440 -688 1440
WIRE -592 1440 -608 1440
WIRE -208 1440 -288 1440
WIRE -112 1440 -208 1440
WIRE -32 1440 -32 1392
WIRE -32 1440 -112 1440
WIRE 16 1440 -32 1440
WIRE -720 1536 -736 1536
WIRE -608 1536 -656 1536
WIRE -208 1536 -208 1520
WIRE -208 1536 -288 1536
WIRE -112 1536 -112 1520
WIRE -112 1536 -208 1536
WIRE 16 1536 16 1504
WIRE 16 1536 -112 1536
WIRE 160 1536 160 1472
WIRE -608 1632 -656 1632
WIRE 160 1632 160 1600
WIRE 160 1632 -288 1632
WIRE 288 1632 288 1408
WIRE 288 1632 160 1632
WIRE -608 1728 -736 1728
WIRE -224 1728 -288 1728
WIRE -736 1760 -736 1728
WIRE -224 1760 -224 1728
WIRE -736 1856 -736 1840
WIRE -384 1856 -384 1808
WIRE -224 1856 -224 1840
WIRE -224 1856 -384 1856
WIRE 128 1856 -224 1856
WIRE 432 1856 432 1376
WIRE 432 1856 192 1856
WIRE -384 1872 -384 1856
WIRE -736 1936 -736 1920
WIRE -672 1936 -736 1936
WIRE -512 1936 -512 1808
WIRE -512 1936 -592 1936
WIRE -736 1968 -736 1936
FLAG 240 544 0
FLAG 864 560 Comp_out\
FLAG -1168 656 High_V_Voltage_Divider
FLAG 1312 560 0
FLAG 1136 528 0
FLAG 1168 160 0
FLAG 1488 336 0
FLAG 1712 352 0
FLAG 2368 48 0
FLAG 208 160 0
FLAG -1072 1024 0
FLAG -1072 880 GLV+
FLAG 1472 96 GLV+
FLAG 2064 192 GLV+
FLAG 2432 880 0
FLAG -928 1024 0
FLAG -928 880 GLV-
FLAG 1472 240 GLV-
FLAG 496 480 GLV+
FLAG -784 1024 0
FLAG -784 880 HV+
FLAG -640 1024 0
FLAG -640 880 HV-
FLAG -1136 192 HV+
FLAG 320 1280 HV-
FLAG 864 1264 VOUT+
FLAG 864 1312 VOUT-
FLAG -720 1280 HV-
FLAG -720 1440 HV-
FLAG -64 1024 HV-
FLAG -240 1024 HV+
FLAG 848 400 0
FLAG 480 96 VOUT+
FLAG 480 304 VOUT-
FLAG -736 1536 HV-
FLAG -656 1632 HV-
FLAG -384 1872 HV-
FLAG -736 1968 HV-
FLAG -432 640 HV-
FLAG 496 592 GLV-
DATAFLAG 704 560 ""
DATAFLAG 688 176 ""
SYMBOL res 432 528 R90
WINDOW 0 0 56 VBottom 2
WINDOW 3 32 56 VTop 2
SYMATTR InstName REF
SYMATTR Value 2.2k
SYMBOL res 432 640 R90
WINDOW 0 0 56 VBottom 2
WINDOW 3 32 56 VTop 2
SYMATTR InstName R2
SYMATTR Value 2.2k
SYMBOL voltage 336 544 R90
WINDOW 123 0 0 Left 0
WINDOW 39 0 0 Left 0
WINDOW 0 43 40 VRight 2
WINDOW 3 62 30 VRight 2
SYMATTR InstName V3
SYMATTR Value 1.935
SYMBOL res -448 384 R0
SYMATTR InstName R50
SYMATTR Value 400
SYMBOL res -448 528 R0
SYMATTR InstName R3
SYMATTR Value 400
SYMBOL res -880 176 R90
WINDOW 0 0 56 VBottom 2
WINDOW 3 32 56 VTop 2
SYMATTR InstName R1
SYMATTR Value 4k
SYMBOL res -752 176 R90
WINDOW 0 0 56 VBottom 2
WINDOW 3 32 56 VTop 2
SYMATTR InstName R4
SYMATTR Value 4k
SYMBOL res -624 176 R90
WINDOW 0 0 56 VBottom 2
WINDOW 3 32 56 VTop 2
SYMATTR InstName R5
SYMATTR Value 4k
SYMBOL res -512 176 R90
WINDOW 0 0 56 VBottom 2
WINDOW 3 32 56 VTop 2
SYMATTR InstName R6
SYMATTR Value 4k
SYMBOL res -384 176 R90
WINDOW 0 0 56 VBottom 2
WINDOW 3 32 56 VTop 2
SYMATTR InstName R7
SYMATTR Value 4k
SYMBOL res -1008 176 R90
WINDOW 0 0 56 VBottom 2
WINDOW 3 32 56 VTop 2
SYMATTR InstName R8
SYMATTR Value 4k
SYMBOL Contrib\\Toshiba\\pmos\\SSM6J422TU 1264 352 R0
SYMATTR InstName U2
SYMBOL voltage 1312 464 R0
SYMATTR InstName V5
SYMATTR Value 4
SYMBOL res 1120 432 R0
SYMATTR InstName R10
SYMATTR Value 100
SYMBOL Comparators\\LTC1441 1472 112 R0
SYMATTR InstName U3
SYMBOL res 1408 144 R90
WINDOW 0 0 56 VBottom 2
WINDOW 3 32 56 VTop 2
SYMATTR InstName REF1
SYMATTR Value 100
SYMBOL res 1408 256 R90
WINDOW 0 0 56 VBottom 2
WINDOW 3 32 56 VTop 2
SYMATTR InstName R14
SYMATTR Value 100
SYMBOL voltage 1264 160 R90
WINDOW 123 0 0 Left 0
WINDOW 39 0 0 Left 0
WINDOW 3 67 49 VRight 2
WINDOW 0 44 35 VRight 2
SYMATTR Value 2
SYMATTR InstName V12
SYMBOL res 1392 352 R270
WINDOW 0 32 56 VTop 2
WINDOW 3 0 56 VBottom 2
SYMATTR InstName R9
SYMATTR Value 100
SYMBOL LED 1696 176 R0
SYMATTR InstName Green
SYMBOL res 1696 240 R0
SYMATTR InstName R11
SYMATTR Value 100
SYMBOL diode 2352 -112 R0
SYMATTR InstName Red
SYMBOL Misc\\NE555 2384 512 R0
SYMATTR InstName U4
SYMBOL cap 2576 752 R0
SYMATTR InstName C1
SYMATTR Value .01µ
SYMBOL res 2848 448 R0
SYMATTR InstName Rb1
SYMATTR Value 24K
SYMBOL cap 2848 608 R0
SYMATTR InstName C2
SYMATTR Value .00001
SYMBOL res 2848 304 R0
SYMATTR InstName RA1
SYMATTR Value 15K
SYMBOL diode 2960 480 R0
SYMATTR InstName D11
SYMBOL res 2352 -48 R0
SYMATTR InstName R12
SYMATTR Value 100k
SYMBOL pnp 2032 -96 R0
SYMATTR InstName Q1
SYMBOL res 2016 -64 R90
WINDOW 0 0 56 VBottom 2
WINDOW 3 32 56 VTop 2
SYMATTR InstName R13
SYMATTR Value 50K
SYMBOL res 2112 112 R180
WINDOW 0 36 76 Left 2
WINDOW 3 36 40 Left 2
SYMATTR InstName R15
SYMATTR Value 1k
SYMBOL PowerProducts\\LT8315 -448 1584 R0
SYMATTR InstName U5
SYMBOL cap -656 1520 R90
WINDOW 0 0 32 VBottom 2
WINDOW 3 32 32 VTop 2
SYMATTR InstName C3
SYMATTR Value 10µ
SYMATTR SpiceLine V=50
SYMBOL res -752 1744 R0
SYMATTR InstName R106
SYMATTR Value 100k
SYMBOL res -576 1920 R90
WINDOW 0 0 56 VBottom 2
WINDOW 3 32 56 VTop 2
SYMATTR InstName R102
SYMATTR Value 59k
SYMBOL cap -752 1856 R0
SYMATTR InstName C6
SYMATTR Value 82n
SYMBOL res -224 1424 R0
SYMATTR InstName R108
SYMATTR Value 61.9k
SYMBOL res -128 1424 R0
SYMATTR InstName R110
SYMATTR Value 5.05k
SYMBOL res -48 1296 R0
SYMATTR InstName R109
SYMATTR Value 95.3k
SYMBOL cap 0 1440 R0
SYMATTR InstName C5
SYMATTR Value 22p
SYMBOL res -240 1744 R0
SYMATTR InstName R107
SYMATTR Value 0.33
SYMBOL cap 192 1840 R90
WINDOW 0 0 32 VBottom 2
WINDOW 3 32 32 VTop 2
SYMATTR InstName C10
SYMATTR Value 2200p
SYMBOL Comparators\\LTC1441 480 112 R0
SYMATTR InstName U6
SYMBOL res 416 144 R90
WINDOW 0 0 56 VBottom 2
WINDOW 3 32 56 VTop 2
SYMATTR InstName REF2
SYMATTR Value 2.2k
SYMBOL res 416 256 R90
WINDOW 0 0 56 VBottom 2
WINDOW 3 32 56 VTop 2
SYMATTR InstName R16
SYMATTR Value 2.2k
SYMBOL voltage 304 160 R90
WINDOW 123 0 0 Left 0
WINDOW 39 0 0 Left 0
WINDOW 0 43 34 VRight 2
WINDOW 3 63 35 VRight 2
SYMATTR InstName V10
SYMATTR Value 1.935
SYMBOL voltage -1072 896 R0
SYMATTR InstName GLV+
SYMATTR Value 12
SYMBOL voltage -928 896 R0
SYMATTR InstName GLV-
SYMATTR Value 0
SYMBOL voltage -784 896 R0
SYMATTR InstName HV+
SYMATTR Value 400
SYMBOL voltage -640 896 R0
SYMATTR InstName HV-
SYMATTR Value 0
SYMBOL diode 176 1600 R180
WINDOW 0 -38 36 Left 2
WINDOW 3 -104 2 Left 2
SYMATTR InstName D3
SYMATTR Value RFN5TF8S
SYMBOL TVSdiode 144 1408 R0
WINDOW 0 24 0 Left 2
WINDOW 3 24 64 Left 2
SYMATTR InstName D4
SYMATTR Value SMCJ33A
SYMATTR Description Diode
SYMATTR Type diode
SYMBOL ind2 304 1312 R0
SYMATTR InstName L1
SYMATTR Value 540µ
SYMATTR Type ind
SYMBOL ind2 304 1264 M180
WINDOW 0 36 80 Left 2
WINDOW 3 36 40 Left 2
SYMATTR InstName L2
SYMATTR Value 8.44µ
SYMATTR Type ind
SYMBOL ind2 416 1360 R180
WINDOW 0 36 80 Left 2
WINDOW 3 36 40 Left 2
SYMATTR InstName L3
SYMATTR Value 8.44µ
SYMATTR Type ind
SYMBOL res -400 1168 R0
SYMATTR InstName R103
SYMATTR Value 20k
SYMBOL cap -400 1280 R0
SYMATTR InstName C4
SYMATTR Value 47p
SYMBOL polcap 544 1264 R0
WINDOW 3 24 56 Left 2
SYMATTR Value 560µ
SYMATTR InstName C12
SYMATTR Description Capacitor
SYMATTR Type cap
SYMATTR SpiceLine V=16 Irms=572m Rser=0.158 Lser=4.4n mfg="Würth Elektronik" pn="860010375013 WCAP-ATG8 10x12,5" type="Al electrolytic"
SYMBOL zener 688 1328 R180
WINDOW 0 24 64 Left 2
WINDOW 3 -109 3 Left 2
SYMATTR InstName D1
SYMATTR Value CDZV9_1B
SYMATTR Description Diode
SYMATTR Type diode
SYMBOL schottky 448 1216 R270
WINDOW 0 32 32 VTop 2
WINDOW 3 -2 47 VBottom 2
SYMATTR InstName D5
SYMATTR Value DFLS220L
SYMATTR Description Diode
SYMATTR Type diode
SYMBOL diode -416 1136 R90
WINDOW 0 -46 35 VBottom 2
WINDOW 3 -42 26 VTop 2
SYMATTR InstName D2
SYMATTR Value RF04UA2D
SYMBOL res -496 1280 R180
WINDOW 0 36 76 Left 2
WINDOW 3 36 40 Left 2
SYMATTR InstName R101
SYMATTR Value 215
SYMBOL cap -640 1264 R90
WINDOW 0 0 32 VBottom 2
WINDOW 3 32 32 VTop 2
SYMATTR InstName C9
SYMATTR Value 10µ
SYMBOL res -704 1328 R0
WINDOW 0 34 40 Left 2
SYMATTR InstName R104
SYMATTR Value 0
SYMBOL cap -80 1008 R90
WINDOW 0 0 32 VBottom 2
WINDOW 3 32 32 VTop 2
SYMATTR InstName C140
SYMATTR Value .47µ
SYMBOL LED 832 192 R0
SYMATTR InstName Blue
SYMBOL res 832 272 R0
SYMATTR InstName R17
SYMATTR Value 100
SYMBOL Comparators\\LTC1441 496 496 R0
SYMATTR InstName U1
TEXT -1376 760 Left 2 !.tran 0 100 0 .001
TEXT 296 504 Right 0 ;1.935V
TEXT 168 1616 Left 0 ;Use CMMR1U-08
TEXT 176 1496 Left 0 ;Use SMAJ200A
TEXT -1368 784 Left 2 ;R1xx denotes the resistors in the LT8315 schematic
TEXT 280 1112 Left 2 !K1 L1 L2 L3 1
TEXT 320 1136 Left 0 ;Use PS16-051
TEXT 856 1240 Left 0 ;Use 1715250000
TEXT 688 1344 Left 0 ;Use CMHZ5243B
TEXT 448 1248 Left 0 ;Use DFLS2100
TEXT 568 1344 Left 0 ;Use 16SEPF560M
TEXT -488 1128 Left 0 ;Use BAV20WS-7-F
TEXT 560 632 Left 2 ;USE LM393\nLTC1441 has max supply voltage of 10V
TEXT 1520 248 Left 2 ;USE LM393
LINE Normal -272 0 -1360 0 2
LINE Normal -272 736 -272 0 2
LINE Normal -1376 752 -272 736 2
LINE Normal -1360 16 -1376 752 2
